Circuit: * C:\Users\eduar\Desktop\jr\Instrumentação e Metrologia\Trabalho 3\Simulação LTSpice\questaoB_T3.asc

Direct Newton iteration for .op point succeeded.

Date: Sun May 09 20:03:51 2021
Total elapsed time: 4.258 seconds.

tnom = 27
temp = 27
method = trap
totiter = 3
traniter = 0
tranpoints = 0
accept = 0
rejected = 0
matrix size = 4
fillins = 0
solver = Normal
Matrix Compiler1: 82 bytes object code size
Matrix Compiler2: 248 bytes object code size
