Circuit: * C:\Users\eduar\Desktop\jr\Instrumentação e Metrologia\Trabalho 2\Simulação LTSpice\ponteWheatstone_Termistor.asc

Direct Newton iteration for .op point succeeded.

Date: Sun Apr 11 18:18:42 2021
Total elapsed time: 1.031 seconds.

tnom = 27
temp = 27
method = trap
totiter = 3
traniter = 0
tranpoints = 0
accept = 0
rejected = 0
matrix size = 4
fillins = 0
solver = Normal
Matrix Compiler1: 82 bytes object code size
Matrix Compiler2: 248 bytes object code size
