Circuit: * C:\Users\eduar\Desktop\jr\Instrumentação e Metrologia\Trabalho 2\Simulação LTSpice\questaoB_P2.asc

Direct Newton iteration for .op point succeeded.

Date: Sun Apr 11 20:33:18 2021
Total elapsed time: 1.273 seconds.

tnom = 27
temp = 50
method = trap
totiter = 3
traniter = 0
tranpoints = 0
accept = 0
rejected = 0
matrix size = 12
fillins = 0
solver = Normal
Matrix Compiler1: 338 bytes object code size
Matrix Compiler2: 712 bytes object code size
