Circuit: * C:\Users\eduar\Desktop\jr\Instrumentação e Metrologia\Trabalho 2\Simulação LTSpice\questaoA_P2.asc

Direct Newton iteration for .op point succeeded.

Date: Sun May 09 14:34:40 2021
Total elapsed time: 0.597 seconds.

tnom = 27
temp = 27
method = trap
totiter = 3
traniter = 0
tranpoints = 0
accept = 0
rejected = 0
matrix size = 12
fillins = 0
solver = Normal
Matrix Compiler1: 338 bytes object code size
Matrix Compiler2: 712 bytes object code size
